# Packages (lines beginning "#" are comments)
 &PACKAGES
 useBELLI=.true.,
 useCal=.true.,
 useMNC=.false.,
 useDiagnostics=.TRUE.,
 useEcco=.true.,
 &
