# Packages (lines beginning "#" are comments)
 &PACKAGES
 useMNC=.false.,
 useIHOP=.true.,
 useDiagnostics=.TRUE.,
 &
