# Packages (lines beginning "#" are comments)
 &PACKAGES
 useBELLI=.true.,
 useCal=.true.,
 useMNC=.false.,
 useDiagnostics=.true.,
# AD packages
 useGrdChk=.true.,
 useProfiles=.true.,
 useEcco=.true.,
 &
