# Packages (lines beginning "#" are comments)
 &PACKAGES
 useMNC=.true.,
 useIHOP=.true.,
 useDiagnostics=.TRUE.,
 useCal=.true.,
 &
